SCP
OPS
EXE
DAY
CRY
ARQ
RAD
YOR
RAY
GUN
ORCA
RAIL
ROCK
SAVE
STAR
MORE
CORE
IRIS
IMBA
OPUS
CAGE
PACT
IKBO
SCAR
GOAL
GALE
VOID
TRON
START
ASTRA
STONE
LIMBO
STRIX
VAULT
VIGIL
NEXUS
AEGIS
GUARD
CRYPT
SOLAR
ARKAN
LUMOS
MIREA
TITAN
SILVER
VORTEX
SERAPH
ARCANA
THRESH
SEPTRA
ARCHON
SENTRY
EREBUS
TARTAR
SILENT
NEBULA
STASIS
THERMO
LUNARIS
CRYPTOS
PANDORA
ECLIPSE
THERMIS
OBLIVION
CELESTIS